#!/sbin/sh

# Detect whether in boot mode
ps | grep zygote | grep -v grep >/dev/null && BOOTMODE=true || BOOTMODE=false
$BOOTMODE || ps -A 2>/dev/null | grep zygote | grep -v grep >/dev/null && BOOTMODE=true

umask 022
OUTFD=$2
ZIP=$3

ZIPDIR=$(dirname "${ZIP}")
MODID=NanoMod

##########################################################################################
# Misc. Functions
##########################################################################################

ui_print() {
	if $BOOTMODE; then
		echo "$1"
	else 
		echo -n -e "ui_print $1\n" >> /proc/self/fd/$OUTFD
		echo -n -e "ui_print\n" >> /proc/self/fd/$OUTFD
	fi
}

grep_prop() {
	REGEX="s/^$1=//p"
	shift
	FILES=$@
	if [ -z "$FILES" ]; then
		FILES='/system/build.prop'
	fi
	cat $FILES 2>/dev/null | sed -n "$REGEX" | head -n 1
}

is_mounted() {
	if [ ! -z "$2" ]; then
		cat /proc/mounts | grep $1 | grep $2, >/dev/null
	else
		cat /proc/mounts | grep $1 >/dev/null
	fi
	return $?
}

set_perm() {
	chown $2:$3 $1 || exit 1
	chmod $4 $1 || exit 1
	if [ ! -z "$5" ]; then
		chcon $5 $1 2>/dev/null
	else
		chcon 'u:object_r:system_file:s0' $1 2>/dev/null
	fi
}

set_perm_recursive() {
	find $1 -type d 2>/dev/null | while read dir; do
		set_perm $dir $2 $3 $4 $6
	done
	find $1 -type f 2>/dev/null | while read file; do
		set_perm $file $2 $3 $5 $6
	done
}

set_perm_dir () {
	set_perm_recursive $1 root root 0755 0644
}

set_perm_data () {
	set_perm $1 root root 0644
}

set_perm_bin () {
	set_perm $1 root root 0755
}

detect_outfd () {
	readlink /proc/$$/fd/$OUTFD 2>/dev/null | grep /tmp >/dev/null
	if [ "$?" -eq "0" ]; then
		OUTFD=0

		for FD in `ls /proc/$$/fd`; do
			readlink /proc/$$/fd/$FD 2>/dev/null | grep pipe >/dev/null
			if [ "$?" -eq "0" ]; then
				ps | grep " 3 $FD " | grep -v grep >/dev/null
				if [ "$?" -eq "0" ]; then
					OUTFD=$FD
					break
				fi
			fi
		done
	fi
}

error () {
	ui_print "${@}"
	if [ "${MODE}" = "MAGISK" ]; then
		rm -rf "${MODPATH}"
		magisk_install_cleanup
	fi
	exit 1
}

##########################################################################################
# NanoMod Configuration File Handling
##########################################################################################

# check for configuration files
config_locations="/sdcard /external_sd /persist ${ZIPDIR} /data"

get_config () {
	config=""
	config_exists=0
	for path in ${config_locations}; do
		if test -r "${path}/${1}" -a -f "${path}/${1}"; then
			config="${path}/${1}"
			config_exists=1
			return
		fi
	done
}

set_prop () {
	echo "${1}=${2}" >> ${nanomodsetup}
}

# check whether '.nanomod-setup' has all required entries
# update format if required
check_nanomodsetup () {
	if grep -q "nanomod\." "${nanomodsetup}"; then
		ui_print " ++ migrating ${nanomodsetup} to new format"
		sed -e 's/nanomod\./nanomod_/g' -i "${nanomodsetup}"
		source "${nanomodsetup}"
	fi

	source ${nanomodsetup}

	[ -z ${nanomod_fdroid} ] && set_prop nanomod_fdroid 1
	[ -z ${nanomod_microg} ] && set_prop nanomod_microg 1
	[ -z ${nanomod_apps} ] && set_prop nanomod_apps 1
	[ -z ${nanomod_play} ] && set_prop nanomod_play 1
	[ -z ${nanomod_overlay} ] && set_prop nanomod_overlay 1
	[ -z ${nanomod_zelda} ] && set_prop nanomod_zelda 1
	[ -z ${nanomod_mapsv1} ] && set_prop nanomod_mapsv1 1
	[ -z ${nanomod_init} ] && set_prop nanomod_init 1
	[ -z ${nanomod_gsync} ] && set_prop nanomod_gsync 0
	[ -z ${nanomod_forcesystem} ] && set_prop nanomod_forcesystem 0
	[ -z ${nanomod_swipe} ] && set_prop nanomod_swipe 0

	source ${nanomodsetup}
}

# check whether '.nanomod-apps' has new format
# and update if required
check_nanomodapps () {
	if grep -q INSTALL_APPS "${nanomodapps}"; then
		ui_print " ++ migrating ${nanomodapps} to new format"
		sed -e 's/^INSTALL_APPS=//;s/\"//g' -i "${nanomodapps}"
	fi
}

# check whether '.nanomod-overlay' has new format
# and update if required
check_nanomodoverlay () {
	if grep -q "APPS=(" "${nanomodoverlay}"; then
		ui_print " ++ migrating ${nanomodoverlay} to new format"
		sed -e 's/^.*APPS=//;s/(//g;s/)//g' -i "${nanomodoverlay}"
		sed '/^\s*$/d' -i "${nanomodoverlay}"
	fi
}

##########################################################################################
# Architecture detection
##########################################################################################

detect_arch () {
	API=`grep_prop ro.build.version.sdk`
	ABI=`grep_prop ro.product.cpu.abi | cut -c-3`
	ABI2=`grep_prop ro.product.cpu.abi2 | cut -c-3`
	ABILONG=`grep_prop ro.product.cpu.abi`

	SDK_VERSION=$(awk -F= '/^ro.build.version.sdk/{print $2}' /system/build.prop)

	ARCH=arm
	IS64BIT=false

	if [ "$ABI" = "x86" ]; then
		ARCH=x86
	fi;

	if [ "$ABI2" = "x86" ]; then
		ARCH=x86
	fi;

	if [ "$ABILONG" = "arm64-v8a" ]; then
		ARCH=arm64
		IS64BIT=true
	fi

	if [ "$ABILONG" = "x86_64" ]; then
		ARCH=x64
		IS64BIT=true
	fi

	case ${ARCH} in
		arm )		BIN_ARCH="arm"	;;
		arm64 )		BIN_ARCH="arm"	;;
		x86 )		BIN_ARCH="x86"	;;
		x86_64 )	BIN_ARCH="x86"	;;
	esac

	case ${SDK_VERSION} in
		19 )		GSYNC_VER=K	;;
		21 | 22 )	GSYNC_VER=L	;;
		23 )		GSYNC_VER=M	;;
		24 | 25 )	GSYNC_VER=N	;;
		* )	GSYNC_UNSUPPORTED=1	;;
	esac

	if [[ "${SDK_VERSION}" -lt 21 ]]; then
		UNFOLD_APP_DIR=1
	fi

	if [[ "${SDK_VERSION}" -lt 19 ]]; then
		ui_print " "
		ui_print " ++ Installing on pre-KitKat ROM, full"
		ui_print " ++ compatibility is not garantueed!"
		ui_print " "
	fi
}

##########################################################################################
# Magisk Mode Installation (fallback functions)
##########################################################################################

grow_magisk_img () {
	e2fsck -yf ${IMG}
	resize2fs -f ${IMG} ${newSizeM}M
	e2fsck -yf ${IMG}
}

shrink_magisk_img () {
	e2fsck -yf ${IMG}
	resize2fs -f ${IMG} ${newSizeM}M
	e2fsck -yf ${IMG}
}

##########################################################################################
# Magisk Mode Installation
##########################################################################################

magisk_install_dirs () {
	rm -rf $MODPATH 2>/dev/null
	mkdir -p $MODPATH
	mkdir $MODPATH/system
	for dir in app etc priv-app bin; do
		mkdir $MODPATH/system/$dir
	done
}

magisk_install_setup () {
	ui_print "******************************"
	ui_print "Powered by Magisk (@topjohnwu)"
	ui_print "******************************"
	ui_print " "
	ui_print " > setup Magisk environment"

	MAGISKBIN=/data/magisk

	[ -d $MAGISKBIN -a -f $MAGISKBIN/magisk -a -f $MAGISKBIN/util_functions.sh ] || \
		error " !! Magisk version 13.1 or newer is required"

	. $MAGISKBIN/util_functions.sh
	[ ! -z $SCRIPT_VERSION -a $SCRIPT_VERSION -ge 1310 ] || \
		error " !! Magisk version 13.1 or newer is required"

	MOUNTPATH=/magisk
	REALPATH=${MOUNTPATH}/${MODID}
	IMG=/data/magisk.img

	if $BOOTMODE; then
		MOUNTPATH=/dev/magisk_merge
		IMG=/data/magisk_merge.img
	fi

	request_size_check "${INSTALLER}"

	$BOOTMODE || recovery_actions

	if [ -f "$IMG" ]; then
		image_size_check "${IMG}"
		if [ "$reqSizeM" -gt "$curFreeM" ]; then
			newSizeM=$(((reqSizeM + curUsedM) / 32 * 32 + 64))
			$MAGISKBIN/magisk --resizeimg $IMG $newSizeM || grow_magisk_img
		fi
	else
		newSizeM=$((reqSizeM / 32 * 32 + 64))
		$MAGISKBIN/magisk --createimg $IMG $newSizeM
	fi

	MAGISKLOOP=`$MAGISKBIN/magisk --mountimg $IMG $MOUNTPATH`
	if ! is_mounted $MOUNTPATH; then
		error " !! $IMG mount failed... abort"
	fi

	MODPATH=$MOUNTPATH/$MODID
}

magisk_install_preinst () {
	if [ -f ${REALPATH}/system/framework/services.jar ]; then
		if [ -f /system/.nanomod-patcher ]; then
			ui_print " << backing up patched services.jar"
			cp ${REALPATH}/system/framework/services.jar \
				${TMPDIR}/services.jar
		else	ui_print " "
			ui_print " ++ /system/.nanomod-patcher is missing, assuming"
			ui_print " ++ ROM was updated, please re-run NanoMod-Patcher"
			ui_print " "
			rm -f ${REALPATH}/system/framework/services.jar
		fi
	elif [ -f /system/.nanomod-patcher ]; then
		ui_print " "
		ui_print " ++ /system/.nanomod-patcher exists, but"
		ui_print " ++ ${REALPATH}/system/framework/services.jar"
		ui_print " ++ doesn't, assuming Magisk was uninstalled"
		ui_print " ++ re-run NanoMod-Patcher if required"
		ui_print " "
		if ! ${BOOTMODE}; then
			if (is_mounted /system); then
				mount -orw,remount /system
			else	mount -orw /system
			fi
			rm -f /system/.nanomod-patcher
			mount -oro,remount /system
		else
			mount -orw,remount /dev/magisk/mirror/system
			rm -f /dev/magisk/mirror/system/.nanomod-patcher
			mount -oro,remount /dev/magisk/mirror/system
		fi
	fi
}

magisk_install_postinst () {
	# Setup Overrides
	if [ "${nanomod_overlay}" -eq 1 ]; then
		ui_print " << with /system applications override"
		if [ "${NO_NANOMODOVERLAY}" -eq 1 ]; then
			cp "${nanomodoverlay}" /data/.nanomod-overlay
		fi
		${MODPATH}/system/bin/bash \
			${MODPATH}/system/bin/nanomod-overlay --create
		if [ "${NO_NANOMODOVERLAY}" -eq 1 ]; then
			rm /data/.nanomod-overlay
		fi
	else	ui_print " << without /system applications override"
	fi

	if [ -f ${TMPDIR}/services.jar ]; then
		ui_print " << restoring patched services.jar"
		mkdir -p $MODPATH/system/framework
		cp ${TMPDIR}/services.jar \
			$MODPATH/system/framework/services.jar
		rm ${TMPDIR}/services.jar
	fi
}

magisk_install_finish () {
	# Magisk Module files
	mktouch $MODPATH/auto_mount
	cp -af $INSTALLER/module.prop $MODPATH/module.prop
	cp -af $INSTALLER/common/service.sh $MODPATH/service.sh

	if $BOOTMODE; then
		# Update info for Magisk Manager
		mktouch /magisk/$MODID/update
		cp -af $INSTALLER/module.prop /magisk/$MODID/module.prop
	fi
}

magisk_install_cleanup () {
	$MAGISKBIN/magisk --umountimg $MOUNTPATH $MAGISKLOOP

	image_size_check $IMG
	newSizeM=$((curUsedM / 32 * 32 + 64))
	if [ $curSizeM -gt $newSizeM ]; then
		$MAGISKBIN/magisk --resizeimg $IMG $newSizeM || shrink_magisk_img
	fi

	$BOOTMODE || recovery_cleanup
}

##########################################################################################
# Generic Installation
##########################################################################################

install_init () {
	mkdir -p $TMPDIR 2>/dev/null

	ui_print " "
	ui_print "******************************"
	ui_print "     NanoMod 13.0.99999999    "
	ui_print "      created by @Nanolx      "
	ui_print "******************************"
	ui_print " "

	INSTALLER=$TMPDIR/$MODID
	mkdir -p ${INSTALLER} || error " !! failed to prepare environment!"

	ui_print " > prepare installation"
	unzip -o "$ZIP" -d "${INSTALLER}" || error " !! failed to prepare environment!"
}

install_microg () {
	# install microG if requested
	if [ "${nanomod_microg}" -eq 1 ]; then
		ui_print " << with microG"
		for app in nlpBackendIchnaea nlpBackendNominatim; do
			nanomod_install /system/app/${app} /system/app/
			nanomod_libs app/${app}
		done
		for app in DroidGuard GmsCore GsfProxy; do
			nanomod_install /system/priv-app/${app} /system/priv-app/
			nanomod_libs priv-app/${app}
		done
	else	ui_print " << without microG"
	fi
}

install_mapsv1 () {
	# install mapsv1 if requested
	if [ "${nanomod_mapsv1}" -eq 1 ]; then
		ui_print " << with Maps API version 1"
		nanomod_install /system/etc/permissions/ /system/etc/
		nanomod_install /system/framework/ /system/
	else	ui_print " << without Maps API version 1"
	fi
}

install_gsync () {
	# install GSync if requested
	if [ "${nanomod_gsync}" -eq 1 ]; then
		if [ "${GSYNC_UNSUPPORTED}" -eq 1 ]; then
			ui_print " << Google Sync Adapters are unsupported on pre-KitKat ROMs"
		else
			ui_print " << with Google Sync (${GSYNC_VER})"
			nanomod_install /gsync/${GSYNC_VER}/app/GoogleCalendarSync /system/app/
			nanomod_libs app/GoogleCalendarSync
			nanomod_install /gsync/${GSYNC_VER}/app/GoogleContactsSync /system/app/
			nanomod_libs app/GoogleContactsSync
			nanomod_install /gsync/${GSYNC_VER}/priv-app/GoogleBackupTransport /system/priv-app/
			nanomod_libs priv-app/GoogleBackupTransport
			nanomod_install /gsync/etc/permissions/ /system/etc/
		fi
	else	ui_print " << without Google Sync"
	fi
}

install_fdroid () {
	# install F-Droid if requested
	if [ "${nanomod_fdroid}" -eq 1 ]; then
		ui_print " << with F-Droid"
		nanomod_install /system/app/FDroid /system/app/
		nanomod_libs app/FDroid
		nanomod_install /system/priv-app/FDroidPrivileged /system/priv-app/
		nanomod_libs priv-app/FDroidPrivileged
	else	ui_print " << without F-Droid"
	fi
}

install_apps () {
	# install apps if requested
	if [ "${nanomod_apps}" -eq 1 ]; then
		ui_print " << with applications"
		APP_STRING=" <<>"
		INSTALL_APPS=$(cat "${nanomodapps}")
		for app in ${INSTALL_APPS}; do
			APP_STRING="${APP_STRING} ${app}, "
		done
		ui_print "${APP_STRING}"
		for app in ${INSTALL_APPS}; do
			nanomod_install /system/app/${app} /system/app/
			nanomod_libs app/${app}
		done
	else	ui_print " << without applications"
	fi
}

install_store () {
	# install Yalp Store or Play Store whichever requested
	if [ "${nanomod_play}" -eq 1 ]; then
		ui_print " << with Play Store"
		nanomod_install /system/priv-app/Phonesky /system/priv-app/
		nanomod_libs priv-app/Phonesky
	elif [ "${nanomod_play}" -eq 2 ]; then
		ui_print " << with Yalp Store (and Fake Store)"
		nanomod_install /system/priv-app/FakeStore /system/priv-app/
		nanomod_libs priv-app/FakeStore
		nanomod_install /system/priv-app/YalpStore /system/priv-app/
		nanomod_libs priv-app/YalpStore
	else	ui_print " << without App Store"
	fi
}

install_zelda () {
	# install Zelda Ringtones when requested
	if [ "${nanomod_zelda}" -eq 1 ]; then
		ui_print " << with Zelda sounds"
		nanomod_install /system/media/ /system/
	else	ui_print " << without Zelda sounds"
	fi
}

install_misc () {
	ui_print " << GNU Bash, GNU Nano, NanoMod-Overlay"
	nanomod_install /system/etc/terminfo /system/etc/
	nanomod_install /system/etc/bash_logout /system/etc/
	nanomod_install /system/etc/bashrc /system/etc/
	nanomod_install /system/share /system/

	for binary in bash less nano nano.bin nanomod-overlay; do
		nanomod_install /system/bin/${binary} /system/bin/ bin
	done

	ui_print " << Shell Utilities (util-linux, bsdmainutils, less)"
	# architecture dependend stuff
	for binary in aapt bash.bin bashbug col colcrt colrm column findfs findmnt \
		hexdump less.bin lessecho lesskey look lsblk lscpu lsipc lslocks \
		lsns ncal setterm unzip whereis; do
		nanomod_install /system/bin/${binary}.${BIN_ARCH} /system/bin/${binary} bin
	done

	if [ "${nanomod_init}" -eq 1 ]; then
		ui_print " << with init scripts"
		mkdir -p ${MODPATH}/${INIT_BASE}
		for init in fstrim logscleaner sqlite external_sd permissions; do
			nanomod_install /system/etc/init.d/${init} ${INIT_BASE}/
		done
	else	ui_print " << without init scripts"
	fi

	if [ "${nanomod_swipe}" -eq 1 ]; then
		ui_print " << with swipe libraries"
		case ${ARCH} in
			arm | x86 )
				SWIPE_LIBDIR=lib
			;;
			arm64 | x86_64 )
				SWIPE_LIBDIR=lib64
			;;
		esac
		mkdir -p ${MODPATH}/system/${SWIPE_LIBDIR}
		for lib in latinimegoogle keyboarddecoder; do
			nanomod_install /swipe/${ARCH}/libjni_${lib}.so \
				/system/${SWIPE_LIBDIR}/
		done
	else	ui_print " << without swipe libraries"
	fi
}

##########################################################################################
# Advanced Installation Functions
##########################################################################################

nanomod_install () {
	source=${INSTALLER}${1}
	destination=${MODPATH}${2}
	perm=$3

	if [ -d ${source} ]; then
		if [ "${UNFOLD_APP_DIR}" -eq 1 -a -f ${source}/*.apk ]; then
			echo "    file: ${source}.apk > ${destination}"

			cp ${source}/*.apk ${destination} || \
				error " !! failed to install ${source}.apk to ${destination}"

			set_perm_data ${destination}$(basename ${source}).apk

			if [ "${MODE}" = "SYSTEM" ]; then
				echo ${destination}$(basename ${source}).apk >> /system/.nanomod-list
			fi
		else
			echo "    dir: ${source} > ${destination}"

			cp -r ${source} ${destination} || \
				error " !! failed to install ${source} to ${destination}"

			set_perm_dir ${destination}$(basename ${source})

			if [ "${MODE}" = "SYSTEM" ]; then
				find "${source}" -type f >> /system/.nanomod-list
			fi
		fi
	elif [ -f ${source} ]; then
		echo "    file: ${source} > ${destination}" || \
			error " !! failed to install ${source} to ${destination}"

		cp ${source} ${destination}

		if [[ -f ${destination} ]]; then
			nanomod_substitute ${destination}
		elif [[ -f ${destination}$(basename ${source}) ]]; then
			nanomod_substitute ${destination}$(basename ${source})
		fi

		case ${perm} in
			bin )
				echo "      setting permissions: binary"
				if [ -f ${destination} ]; then
					set_perm_bin ${destination}
				elif [ -f ${destination}$(basename ${source}) ]; then
					set_perm_bin ${destination}$(basename ${source})
				fi
			;;
			* )
				echo "      setting permissions: data"
				if [ -f ${destination} ]; then
					set_perm_data ${destination}
				elif [ -f ${destination}$(basename ${source}) ]; then
					set_perm_data ${destination}$(basename ${source})
				fi
			;;
		esac

		if [ "${MODE}" = "SYSTEM" ]; then
			if [ -f ${destination} ]; then
				echo ${destination} >> /system/.nanomod-list
			elif [ -f ${destination}$(basename ${source}) ]; then
				echo ${destination}$(basename ${source}) >> /system/.nanomod-list
			fi
		fi
	else	error " !! file ${source} not found"
	fi
}

nanomod_libs () {
	if [ "${UNFOLD_APP_DIR}" -eq 1 ]; then
		apk=${MODPATH}/system/${1}.apk
		case ${ARCH} in
			arm | x86 )      libd=/system/lib   ;;
			arm64 | x86_64 ) libd=/system/lib64 ;;
		esac
	else
		apk=${MODPATH}/system/${1}/*.apk
		case ${ARCH} in
			arm )	 libd=${MODPATH}/system/${1}/lib/arm    ;;
			arm64 )  libd=${MODPATH}/system/${1}/lib/arm64  ;;
			x86 )	 libd=${MODPATH}/system/${1}/lib/x86    ;;
			x86_64 ) libd=${MODPATH}/system/${1}/lib/x86_64 ;;
		esac
	fi

	tmpd=${TMPDIR}/nanomod-lib

	rm -rf ${tmpd}
	mkdir ${tmpd}

	srcdir=""

	if [ ! -f ${apk} ]; then
		error " !! apk ${apk} not found"
	fi

	"${INSTALLER}/system/bin/unzip.${BIN_ARCH}" \
		-oq ${apk} "lib/*" -d "${tmpd}" \
		2>/dev/null
	unzip_return=$?

	if [ ${unzip_return} -eq 0 ]; then
		echo "      $(basename ${apk}) does have libs"
	elif [ ${unzip_return} -eq 11 ]; then
		echo "      $(basename ${apk}) does not have any libs"
	else	error "  !! installing libs for $(basename ${apk}) failed"
	fi

	if [ -d ${tmpd}/lib ]; then
		case ${ARCH} in
			arm )
				if [ -d ${tmpd}/lib/armeabi-v7a ]; then
					srcdir=${tmpd}/lib/armeabi-v7a
				elif [ -d ${tmpd}/lib/armeabi ]; then
					srcdir=${tmpd}/lib/armeabi
				fi
			;;
			arm64 )
				if [ -d ${tmpd}/lib/arm64-v8a ]; then
					srcdir=${tmpd}/lib/arm64-v8a
				elif [ -d ${tmpd}/lib/armeabi-v7a ]; then
					srcdir=${tmpd}/lib/armeabi-v7a
				elif [ -d ${tmpd}/lib/armeabi ]; then
					srcdir=${tmpd}/lib/armeabi
				fi
			;;
			x86 )
				if [ -d ${tmpd}/lib/x86 ]; then
					srcdir=${tmpd}/lib/x86
				fi
			;;
			x86_64 )
				if [ -d ${tmpd}/lib/x86_64 ]; then
					srcdir=${tmpd}/lib/x86_64
				elif [ -d ${tmpd}/lib/x86 ]; then
					srcdir=${tmpd}/lib/x86
				fi
			;;
		esac

		if [ -d ${srcdir} ]; then
			case ${srcdir} in
				*arm64*  ) echo "      $(basename ${apk}): installing arm64 libs"  ;;
				*arm*	 ) echo "      $(basename ${apk}): installing arm libs"    ;;
				*x86_64* ) echo "      $(basename ${apk}): installing x86_64 libs" ;;
				*x86*	 ) echo "      $(basename ${apk}): installing x86 libs"    ;;
			esac

			echo "        into: ${libd}"
			mkdir -p ${libd}

			for lib in ${srcdir}/*; do
				cp ${lib} ${libd}/
				set_perm_data ${libd}/$(basename ${lib})
				if [ "${MODE}" = "SYSTEM" ]; then
					echo ${libd}/$(basename ${lib}) >> /system/.nanomod-list
				fi
			done
		fi
	fi
}

nanomod_substitute () {
	if grep -q @ZIPDIR@ ${1}; then
		if [[ "${ZIPDIR}" == "/external_sd" ]]; then
			# /external_sd is already know by `nanomod-overlay`
			# no need to add it a second time
			sed -e 's|@ZIPDIR@||' -i ${1}
			echo "    substitute: remove @ZIPDIR@ ${1}"
		else
			sed -e "s|@ZIPDIR@|${ZIPDIR}|g" -i ${1}
			echo "    substitute: adjust @ZIPDIR@ in ${1}"
		fi
	fi

	if grep -q @MODPATH@ ${1}; then
		sed -e "s|@MODPATH@|${REALPATH}|g" -i ${1}
		echo "    substitute: adjust @MODPATH@ in ${1}"
	fi
}

nanomod_finalize () {
	if [ "${MODE}" = "SYSTEM" ]; then
		sed -e "s,^${INSTALLER},,g" -i /system/.nanomod-list \
			|| error " !! failed to create uninstaller information"
		sed -e "s,/swipe/${ARCH},/system/${SWIPE_LIBDIR},g" -i /system/.nanomod-list \
			|| error " !! failed to create uninstaller information"
		sed -e "s,/gsync/${GSYNC_VER},/system,g" -i /system/.nanomod-list \
			|| error " !! failed to create uninstaller information"
		sed -e "s,/gsync/etc,/system/etc,g" -i /system/.nanomod-list \
			|| error " !! failed to create uninstaller information"
		sort /system/.nanomod-list | uniq > /system/.nanomod-list.tmp \
			|| error " !! failed to create uninstaller information"
		mv /system/.nanomod-list.tmp /system/.nanomod-list \
			|| error " !! failed to create uninstaller information"
	fi
}

##########################################################################################
# Flashable update-binary preparation
##########################################################################################

detect_outfd

umount /system 2>/dev/null
umount /data 2>/dev/null
umount /cache 2>/dev/null
umount /persist 2>/dev/null

mount -o ro /system 2>/dev/null
mount /persist 2>/dev/null
mount /data 2>/dev/null
mount /cache 2>/dev/null

if [ ! -f '/system/build.prop' ]; then
	error " !! /system/build.prop does not exist"
fi

detect_arch

# This path should work in any cases
TMPDIR=/dev/tmp

install_init

get_config .nanomod-setup
if [ "$config_exists" -eq 1 ]; then
	NO_NANOMODSETUP=0
	nanomodsetup="${config}"
	check_nanomodsetup
else	NO_NANOMODSETUP=1
	nanomodsetup="${INSTALLER}/.nanomod-setup"
	source "${nanomodsetup}"
fi

get_config .nanomod-overlay
if [ "$config_exists" -eq 1 ]; then
	NO_NANOMODOVERLAY=0
	nanomodoverlay="${config}"
	check_nanomodoverlay
else	NO_NANOMODOVERLAY=1
	nanomodoverlay="${INSTALLER}/.nanomod-overlay"
fi

get_config .nanomod-apps
if [ "$config_exists" -eq 1 ]; then
	NO_NANOMODAPPS=0
	nanomodapps="${config}"
	check_nanomodapps
else	NO_NANOMODAPPS=1
	nanomodapps="${INSTALLER}/.nanomod-apps"
fi

if [ "${nanomod_forcesystem}" -eq 1 ]; then
	if ! ${BOOTMODE}; then
		MODE=SYSTEM
		MODE_TEXT=" > Mode   | System          | forced"
	else
		MODE=MAGISK
		MODE_TEXT=" > Mode   | Magisk          | forced"
	fi
elif [ ! -f /data/magisk.img  ]; then
	MODE=SYSTEM
	MODE_TEXT=" > Mode   | System          | detected"
else
	MODE=MAGISK
	MODE_TEXT=" > Mode   | Magisk          | detected"
fi

##########################################################################################
# Main
##########################################################################################

if [ "$NO_NANOMODSETUP" -eq 1 ]; then
	ui_print " > Config | nanomod-setup   | fallback"
else	ui_print " > Config | nanomod-setup   | $(dirname ${nanomodsetup})"
fi

if [ "$NO_NANOMODOVERLAY" -eq 1 ]; then
	ui_print " > Config | nanomod-overlay | fallback"
else	ui_print " > Config | nanomod-overlay | $(dirname ${nanomodoverlay})"
fi

if [ "$NO_NANOMODAPPS" -eq 1 ]; then
	ui_print " > Config | nanomod-apps    | fallback"
else	ui_print " > Config | nanomod-apps    | $(dirname ${nanomodapps})"
fi

ui_print "${MODE_TEXT}"
ui_print " "

# You can get the Android API version from $API, the CPU architecture from $ARCH
# Useful if you are creating Android version / platform dependent mods

if [ "${MODE}" = "MAGISK" ]; then
	magisk_install_setup
	magisk_install_preinst
	magisk_install_dirs
fi

if [ "${MODE}" = "MAGISK" ]; then
	INIT_BASE="/init.d"
else
	mount -orw,remount /system 2>/dev/null || \
		error " !! failed to re-mount /system read-write"
	INIT_BASE="/system/etc/init.d"
	unset MODPATH
fi

# When installing in Magisk mode we are forced to use our own unzip
# for nanomod_libs() to work, use it in System mode aswell.
chmod +x "${INSTALLER}/system/bin/unzip.${BIN_ARCH}"

install_microg
install_mapsv1
install_gsync
install_fdroid
install_store
install_apps
install_zelda
install_misc

if [ "${MODE}" = "MAGISK" ]; then
	magisk_install_postinst
	magisk_install_finish
fi

nanomod_finalize

ui_print " "
ui_print " Thanks for using NanoMod "
ui_print " "

if [ "${MODE}" = "MAGISK" ]; then
	magisk_install_cleanup
elif ! ${BOOTMODE}; then
	umount /system 2>/dev/null
fi

exit 0
