#!@MODPATH@/system/xbin/bash

# just call nanodroid-overlay
nanodroid-overlay "${@}"
