#!@MODPATH@/system/xbin/bash

# just call nanomod-overlay
nanomod-overlay "${@}"
